
<< INPUTS >>
 
Input file: /storage1/eliza/PATTuples_HF7_Nov2012/data_MCPYTHIAPF7/pythia6PF7_total_0.root
Output file: puHistoPythia6.root
 
pT(Jet1): 60GeV
pT(Jet2): 60GeV
# Vertex: 1
Trigger Option: 0
 
--> TRUE = 1 FALSE = 0
Lumi. Weight: 0
Evt. - Evt. Weight: 0
Trigger Switch: 0
Pre-Selection Switch: 1
N Bins PU Distributions: 25
 
--> Factors
Lumi. Weight: 1

<< EVENT INFO >> 
 
Total # of Events without Weight: 9921313
 
Triggered: 41598
STEP1: 36944
STEP2: 29133
STEP3 (CMS Acceptance): 29133
STEP4_4 (CMS Acceptance): 8526
STEP4_3 (CMS Acceptance): 1768
STEP4_2 (CMS Acceptance): 55
STEP4_1 (CMS Acceptance): 0
 
STEP3 (Tracker Acceptance): 29129
STEP4_4 (Tracker Acceptance): 8524
STEP4_3 (Tracker Acceptance): 1768
STEP4_2 (Tracker Acceptance): 55
STEP4_1 (Tracker Acceptance): 0
 
STEP3 (eta < 2 and eta > -2 Acceptance): 23289
STEP4_4 (eta < 2 and eta > -2 Acceptance): 6783
STEP4_3 (eta < 2 and eta > -2 Acceptance): 1436
STEP4_2 (eta < 2 and eta > -2 Acceptance): 55
STEP4_1 (eta < 2 and eta > -2 Acceptance): 0
 
<< LEGEND >> 
STEP1: # Vertex selection.
STEP2: # Vertex selection + Two Jets.
STEP3: # Vertex selection + Two Jets + Jets in Tracker Acceptance or All CMS.
STEP4_X: # Vertex selection + Two Jets + Jets in Tracker Acceptance or All CMS + Eta_max < X and Eta_min > X.
 
