
<< INPUTS >>
 
Input file: /storage1/eliza/PATTuples_HF7_Nov2012/data_MCHERWIG/data/herwigppPF7_total_0.root
Output file: puHistoHerwig.root
 
pT(Jet1): 60GeV
pT(Jet2): 60GeV
# Vertex: 1
Trigger Option: 0
 
--> TRUE = 1 FALSE = 0
Lumi. Weight: 0
Evt. - Evt. Weight: 0
Trigger Switch: 0
Pre-Selection Switch: 1
N Bins PU Distributions: 25
 
--> Factors
Lumi. Weight: 1

<< EVENT INFO >> 
 
Total # of Events without Weight: 9912159
 
Triggered: 20314
STEP1: 18119
STEP2: 14155
STEP3 (CMS Acceptance): 14155
STEP4_4 (CMS Acceptance): 4217
STEP4_3 (CMS Acceptance): 1026
STEP4_2 (CMS Acceptance): 29
STEP4_1 (CMS Acceptance): 0
 
STEP3 (Tracker Acceptance): 14152
STEP4_4 (Tracker Acceptance): 4215
STEP4_3 (Tracker Acceptance): 1026
STEP4_2 (Tracker Acceptance): 29
STEP4_1 (Tracker Acceptance): 0
 
STEP3 (eta < 2 and eta > -2 Acceptance): 11689
STEP4_4 (eta < 2 and eta > -2 Acceptance): 3446
STEP4_3 (eta < 2 and eta > -2 Acceptance): 842
STEP4_2 (eta < 2 and eta > -2 Acceptance): 29
STEP4_1 (eta < 2 and eta > -2 Acceptance): 0
 
<< LEGEND >> 
STEP1: # Vertex selection.
STEP2: # Vertex selection + Two Jets.
STEP3: # Vertex selection + Two Jets + Jets in Tracker Acceptance or All CMS.
STEP4_X: # Vertex selection + Two Jets + Jets in Tracker Acceptance or All CMS + Eta_max < X and Eta_min > X.
 
